Codigos/Simulacoes/118/FLUXO_NWT_RPHSN_118.txt

  ***************** RESULTADOS - FLUXO DE POTÊNCIA **********************

                      MÉTODO NEWTON RAPHSON              


#####   HORÁRIO   => 01:00
#####   INTERVALO => 1

  NUMEROS DE BARRAS:	118
  NUMEROS DE LINHAS:	186
  QT. ITERAÇÕES:	6

  TENSÃO E POTÊNCIA POR BARRA
 -----------------------------------------------------------
 Barra Tensão  Ângulo      --Carga--       --Gerador-- 
       (pu)    (grau)      MW      MVar     MW      MVar  
 ------------------------------------------------------------
    1  0.998    84.23     7.60     4.00    -0.00    -5.00
    2  1.003    84.94     3.00     1.30     0.00     0.00
    3  1.000    84.06     5.80     1.50    -0.00     0.00
    4  0.998    83.19     4.50     1.80     9.00   -43.32
    5  1.001    83.08     0.00     0.00     0.00     0.00
    6  0.999    84.18     7.80     3.30    -0.00   -13.00
    7  1.001    84.66     2.90     0.30     0.00    -0.00
    8  1.015    81.73     0.00     0.00    28.00   -60.68
    9  1.052    81.73     0.00     0.00     0.00     0.00
   10  1.050    81.90     0.00     0.00    10.00   -74.22
   11  1.003    84.31    10.50     3.40    -0.00    -0.00
   12  1.006    85.49     7.00     1.50   275.00   -35.00
   13  1.001    82.80     5.10     2.40    -0.00     0.00
   14  1.005    83.56     2.10     0.10    -0.00    -0.00
   15  1.000    78.55    13.50     4.50     0.00   -10.00
   16  1.005    83.38     3.80     1.50    -0.00     0.00
   17  1.005    79.25     1.60     0.40     0.00     0.00
   18  0.996    78.42     9.00     5.10    -0.00   -16.00
   19  0.999    77.74     6.80     3.80     0.00    -8.00
   20  1.003    77.44     2.70     0.40     0.00     0.00
   21  1.005    77.38     2.10     1.20     0.00     0.00
   22  1.006    77.44     1.50     0.80     0.00     0.00
   23  1.005    77.73     1.10     0.40     0.00     0.00
   24  0.992    70.49     0.00     0.00    13.00    62.87
   25  1.050    87.66     0.00     0.00   220.00    41.81
   26  1.015    89.40     0.00     0.00   287.50    -4.24
   27  0.968    81.57     9.30     1.90     9.00   -67.86
   28  0.968    80.96     2.50     1.10     0.00     0.00
   29  0.967    80.45     3.60     0.60     0.00     0.00
   30  0.996    79.73     0.00     0.00     0.00     0.00
   31  0.967    80.35     6.50     4.00     7.00   -32.22
   32  0.975    80.13     8.80     3.40     0.00   -14.00
   33  1.006    74.63     3.40     1.30     0.00     0.00
   34  1.017    70.59     8.80     3.90     0.00    -8.00
   35  1.015    70.51     5.00     1.30    -0.00     0.00
   36  1.015    70.53     4.60     2.50     0.00    -8.00
   37  1.018    70.58     0.00     0.00    -0.00     0.00
   38  0.980    71.97     0.00     0.00     0.00     0.00
   39  0.986    67.42     4.00     1.60    -0.00     0.00
   40  0.970    65.69     3.00     3.40    46.00   -48.48
   41  0.973    64.69     5.50     1.50     0.00     0.00
   42  0.985    62.43     5.50     3.40    59.00     3.01
   43  1.026    67.73     2.70     1.10    -0.00     0.00
   44  1.035    64.13     2.40     1.20     0.00     0.00
   45  1.028    63.10     7.90     3.30     0.00     0.00
   46  1.005    62.06     4.20     1.50    19.00   -43.98
   47  1.003    58.68     5.10     0.00    -0.00     0.00
   48  1.027    63.04     3.00     1.60     0.00    -0.00
   49  1.025    63.54    13.00     4.50   204.00    61.02
   50  1.010    64.10     2.50     0.60     0.00     0.00
   51  0.990    64.88     2.50     1.20     0.00     0.00
   52  0.985    65.07     2.70     0.80    -0.00     0.00
   53  0.969    65.83     3.40     1.60    -0.00    -0.00
   54  0.955    66.67    16.90     4.80    48.00  -137.89
   55  0.959    66.57     9.40     3.30     0.00    -8.00
   56  0.960    66.53    12.60     2.70     0.00    -8.00
   57  0.982    65.39     1.80     0.40     0.00     0.00
   58  0.978    65.51     1.80     0.40     0.00    -0.00
   59  0.985    67.79    41.50    16.90   155.00   -53.50
   60  0.995    67.45    11.70     0.40     0.00    -0.00
   61  0.995    67.56     0.00     0.00   160.00   -44.20
   62  1.001    67.24    11.50     2.10    -0.00   -20.00
   63  0.974    66.32     0.00     0.00    -0.00     0.00
   64  0.987    65.45     0.00     0.00    -0.00     0.00
   65  1.005    61.79     0.00     0.00   391.00   200.00
   66  1.050    66.57     5.80     2.70   392.00    16.68
   67  1.028    66.74     4.20     1.10     0.00     0.00
   68  0.991    52.44     0.00     0.00    -0.00     0.00
   69  1.035    30.00     0.00     0.00  -2121.98   782.87
   70  0.993    43.38     9.90     3.00     0.00   -10.00
   71  0.989    45.37     0.00     0.00     0.00     0.00
   72  0.980    56.48     0.00     0.00    12.00    12.49
   73  0.991    45.18     0.00     0.00     6.00     4.59
   74  0.994    42.81    10.20     4.00     0.00    -6.00
   75  0.995    42.90     7.00     1.60     0.00     0.00
   76  0.984    47.94    10.20     5.40    -0.00    -8.00
   77  1.006    55.93     9.20     4.20     0.00    37.31
   78  1.011    56.57    10.70     3.90    -0.00     0.00
   79  1.020    57.96     5.80     4.80     0.00     0.00
   80  1.040    62.23    19.50     3.90   477.00   147.65
   81  0.989    56.17     0.00     0.00     0.00     0.00
   82  0.996    68.21     8.10     4.00     0.00     0.00
   83  0.991    72.31     3.00     1.50     0.00     0.00
   84  0.994    79.07     1.60     1.10     0.00     0.00
   85  1.000    82.40     3.60     2.30     0.00    -8.00
   86  1.007    82.35     3.10     1.50     0.00    -0.00
   87  1.015    82.76     0.00     0.00     4.00     1.16
   88  0.999    88.19     7.20     1.50    -0.00     0.00
   89  1.005    92.51     0.00     0.00   607.00   -48.00
   90  0.985    88.13    11.70     6.30    85.00     1.14
   91  0.980    87.21     0.00     0.00    10.00   -19.92
   92  0.999    86.19     9.80     1.50     0.00    -3.00
   93  0.996    81.20     1.80     1.10     0.00     0.00
   94  0.999    76.98     4.50     2.40     0.00     0.00
   95  0.996    73.98     6.30     4.60     0.00     0.00
   96  0.999    70.35     5.70     2.30     0.00     0.00
   97  1.017    66.25     2.30     1.30     0.00     0.00
   98  1.022    68.17     5.10     1.20     0.00     0.00
   99  1.010    72.72     0.00     0.00    42.00    -2.12
  100  1.017    78.86     5.50     2.70   252.00    30.94
  101  1.008    81.82     3.30     2.30     0.00     0.00
  102  1.002    84.70     0.80     0.40     0.00     0.00
  103  1.010    78.84     3.40     2.40    40.00     2.76
  104  0.997    77.97     5.70     3.80     0.00    -8.00
  105  0.993    77.68     4.60     3.90     0.00    -8.00
  106  0.990    77.51     6.50     2.40     0.00     0.00
  107  0.952    76.68     4.20     1.80    22.00   -41.22
  108  0.990    77.56     0.30     0.10     0.00     0.00
  109  0.989    77.52     1.20     0.40     0.00     0.00
  110  0.985    77.49     5.80     4.50     0.00    -8.00
  111  0.980    79.31     0.00     0.00    36.00   -17.19
  112  0.975    75.64     3.80     1.90    43.00     2.67
  113  0.993    79.40     0.00     0.00     6.00   -32.69
  114  0.972    80.64     1.20     0.40     0.00    -0.00
  115  0.971    80.74     3.30     1.10     0.00     0.00
  116  1.005    51.94     0.00     0.00   184.00   348.94
  117  1.006    85.24     3.00     1.20    -0.00    -0.00
  118  0.988    45.18     5.00     2.30     0.00    -0.00

             Total->    549.40   214.80  2036.52   774.21

  CORRENTE e FLUXO DE POTÊNCIA POR LINHA
-----------------------------------------------------------------------------------------
 De Para  I(pu) Ângulo     FLUXO DIRETO     FLUXO INVERSO      PERDAS
                (grau)     MW   -> MVar     MW   <- MVar    MW      MVar 
-----------------------------------------------------------------------------------------
  1   2   0.130 -105.96  -12.76   -2.29   12.81   -0.08    0.05   -2.38
  1   3   0.085  136.64    5.16   -6.71   -5.15    5.65    0.01   -1.05
  4   5   0.483  155.94   14.29  -45.99  -14.24   45.97    0.04   -0.02
  3   5   0.160  106.35   14.78   -6.06  -14.73    3.48    0.06   -2.58
  5   6   0.349  -76.70  -32.80   12.08   32.95  -12.84    0.15   -0.76
  6   7   0.410 -100.67  -40.75   -3.46   40.83    3.26    0.08   -0.20
  8   9   1.789  174.77   -9.65 -181.30   10.00   61.57    0.35 -119.73
  8   5   1.432  -47.14  -91.20  113.14   91.20 -107.83   -0.00    5.31
  9  10   0.593 -179.05  -10.00  -61.57   10.00  -74.22    0.00 -135.79
  4  11   0.279  -95.00  -27.79    0.88   27.95   -2.09    0.16   -1.21
  5  11   0.300  -85.04  -29.43    6.19   29.61   -7.32    0.19   -1.12
 11  12   1.025  -87.40 -101.69   14.82  102.31  -13.26    0.63    1.55
  2  12   0.158  -99.46  -15.81   -1.22   15.86   -0.22    0.05   -1.43
  3  12   0.155  -99.99  -15.43   -1.09   15.55   -2.61    0.12   -3.70
  7  12   0.438 -100.00  -43.73   -3.56   43.89    3.33    0.17   -0.23
 11  13   0.347   98.99   33.63   -8.81  -33.36    7.79    0.26   -1.02
 12  14   0.461   99.95   44.88  -11.57  -44.43   11.22    0.45   -0.35
 13  15   0.300  102.64   28.26  -10.19  -27.63    5.98    0.63   -4.21
 14  15   0.436   98.54   42.33  -11.32  -41.23    9.89    1.10   -1.43
 12  16   0.433   98.42   42.51   -9.76  -42.11    9.15    0.39   -0.61
 15  17   0.289 -110.22  -28.61   -4.41   28.72    0.31    0.11   -4.11
 16  17   0.396   98.91   38.31  -10.65  -37.62    8.68    0.69   -1.97
 17  18   0.324   61.50   31.04    9.94  -30.91  -10.70    0.13   -0.76
 18  19   0.243  103.82   21.91  -10.40  -21.85    9.55    0.07   -0.85
 19  20   0.069  137.45    3.45   -5.91   -3.44    2.96    0.01   -2.95
 15  19   0.347   88.93   34.19   -6.26  -34.05    5.73    0.14   -0.54
 20  21   0.034  154.96    0.74   -3.36   -0.74    1.19    0.00   -2.17
 21  22   0.027 -163.06   -1.36   -2.39    1.36   -0.09    0.00   -2.48
 22  23   0.029 -116.47   -2.86   -0.71    2.86   -3.36    0.00   -4.07
 23  24   2.487   84.13  248.44  -27.90 -240.10   53.31    8.34   25.41
 23  25   2.249 -101.52 -226.03    2.98  233.92   28.40    7.90   31.38
 26  25   0.895   75.69   88.21   21.52  -88.21  -18.70    0.00    2.82
 25  27   0.771   64.27   74.29   32.12  -72.19  -39.36    2.10   -7.24
 27  28   0.119   98.57   11.06   -3.38  -11.03    1.47    0.03   -1.91
 28  29   0.092   97.75    8.53   -2.57   -8.51    0.42    0.02   -2.15
 30  17   0.888    4.56   22.64   85.48  -22.64  -82.66   -0.00    2.82
  8  30   0.721   75.86   72.85    7.48  -72.58  -56.28    0.27  -48.79
 26  30   1.980   96.76  199.29  -25.76 -196.17  -32.49    3.11  -58.26
 17  31   0.241  -20.46   -4.09   23.90    4.41  -26.72    0.32   -2.82
 29  31   0.052   92.18    4.91   -1.02   -4.91    0.25    0.00   -0.77
 23  32   0.382  -55.68  -26.37   27.88   26.95  -37.28    0.58   -9.41
 31  32   0.101  164.49    1.00   -9.75   -0.98    7.46    0.02   -2.29
 27  32   0.328  116.04   26.20  -17.99  -25.96   16.96    0.24   -1.03
 15  33   0.535  100.13   49.78  -19.69  -48.72   19.96    1.07    0.27
 19  34   0.504  102.62   45.64  -21.17  -43.83   20.71    1.82   -0.45
 35  36   0.042  -42.91   -1.71    3.94    1.71   -4.21    0.00   -0.27
 35  37   0.061 -167.32   -3.29   -5.24    3.30    3.89    0.00   -1.35
 33  37   0.497   99.77   45.32  -21.26  -44.32   20.92    1.00   -0.34
 34  36   0.084   28.41    6.31    5.72   -6.31   -6.29    0.01   -0.57
 34  37   0.096  156.59    0.68   -9.74   -0.68    8.73    0.00   -1.01
 38  37   1.128   20.61   69.01   86.32  -69.01  -82.15    0.00    4.17
 37  39   0.570   57.53   56.46   13.08  -55.41  -12.31    1.05    0.77
 37  40   0.541   60.51   54.25    9.63  -52.49   -8.78    1.77    0.85
 30  38   2.472   78.96  246.11    3.29 -243.25  -11.16    2.86   -7.87
 39  40   0.532   55.65   51.41   10.71  -50.88  -10.47    0.52    0.24
 40  41   0.341   93.96   29.17  -15.69  -29.00   15.09    0.17   -0.60
 40  42   0.313   99.60   25.20  -16.94  -24.70   14.15    0.50   -2.79
 41  42   0.296   99.92   23.50  -16.59  -23.17   14.40    0.34   -2.19
 43  44   0.271   94.00   24.96  -12.32  -24.55    7.52    0.41   -4.80
 34  43   0.309   97.33   28.03  -14.12  -27.66   11.22    0.37   -2.90
 44  45   0.215   58.96   22.15    2.01  -22.05   -3.97    0.10   -1.96
 45  46   0.199   31.59   17.43   10.69  -17.26  -13.53    0.17   -2.84
 46  47   0.451   76.95   43.84  -11.65  -43.08   11.01    0.76   -0.64
 46  48   0.155 -158.80  -11.78  -10.19   11.90    5.69    0.12   -4.50
 47  49   1.357 -116.65 -135.69   11.08  139.21   -1.20    3.52    9.88
 42  49   0.169 -177.68   -8.32  -14.47    8.45    6.36    0.13   -8.11
 42  49   0.169 -177.68   -8.32  -14.47    8.45    6.36    0.13   -8.11
 45  49   0.032 -107.37   -3.28    0.55    3.30   -5.20    0.01   -4.64
 48  49   0.167  -87.20  -14.90    8.52   14.95   -9.70    0.05   -1.18
 49  50   0.219  -40.57   -5.46   21.73    5.60  -23.28    0.14   -1.55
 49  51   0.272  -41.25   -7.12   26.98    7.53  -29.31    0.41   -2.33
 51  52   0.091  -39.71   -2.27    8.73    2.29  -10.04    0.02   -1.31
 52  53   0.107  -53.32   -4.99    9.24    5.05  -12.85    0.06   -3.62
 53  54   0.145  -61.09   -8.45   11.25    8.52  -13.82    0.07   -2.56
 49  54   0.262  -51.60  -11.42   24.34   12.07  -29.04    0.64   -4.69
 49  54   0.257  -48.85  -10.02   24.32   10.75  -29.01    0.74   -4.69
 54  55   0.072  149.30    0.88   -6.83   -0.88    5.01    0.01   -1.82
 54  56   0.543  146.55    9.12  -51.09   -9.04   50.70    0.08   -0.39
 55  56   0.058  126.85    2.76   -4.83   -2.76    4.49    0.00   -0.34
 56  57   0.294  134.73   10.48  -26.21  -10.21   24.70    0.28   -1.50
 50  57   0.238  -45.56   -8.10   22.68    8.41  -25.10    0.31   -2.43
 56  58   0.252  132.42    9.88  -22.07   -9.68   20.36    0.20   -1.71
 51  58   0.211  -46.94   -7.76   19.38    7.88  -20.76    0.12   -1.39
 54  59   0.172 -164.86  -10.25  -12.90   10.36    7.79    0.11   -5.10
 56  59   0.141 -153.85  -10.31   -8.77   10.44    3.78    0.13   -4.99
 56  59   0.146 -152.65  -10.85   -8.84   10.99    4.18    0.14   -4.66
 55  59   0.168 -158.92  -11.28  -11.48   11.39    6.63    0.11   -4.85
 59  60   0.099  143.45    2.42   -9.45   -2.40    5.86    0.02   -3.59
 59  61   0.089  150.19    1.16   -8.70   -1.15    4.97    0.02   -3.73
 60  61   0.144  -90.79  -13.35    5.33   13.35   -6.74    0.01   -1.41
 60  62   0.123  138.20    4.04  -11.59   -4.03   10.20    0.02   -1.39
 61  62   0.219  127.88   10.79  -18.93  -10.75   18.12    0.04   -0.80
 63  59   1.059  -64.01  -66.75   78.63   66.75  -74.64    0.00    3.99
 63  64   1.059  115.99   66.75  -78.63  -66.58   59.79    0.17  -18.84
 64  61   1.418 -102.71 -137.00   28.73  137.00  -23.50    0.00    5.23
 38  65   1.936   95.30  174.24  -75.16 -171.33    3.92    2.91  -71.24
 64  65   2.249   88.95  203.58  -88.52 -202.30   65.19    1.28  -23.33
 49  66   0.647 -129.45  -64.60  -14.89   65.35   16.04    0.75    1.14
 49  66   0.647 -129.45  -64.60  -14.89   65.35   16.04    0.75    1.14
 62  66   0.255  155.71    0.68  -25.47   -0.44   20.50    0.25   -4.97
 62  67   0.251  151.30    2.60  -24.95   -2.46   22.40    0.14   -2.54
 65  66   2.659 -100.22 -254.09   82.54  254.09  -59.68    0.00   22.86
 66  67   0.202  -18.42    1.85   21.08   -1.74  -23.50    0.10   -2.42
 65  68  10.149   59.07 1018.73   48.36 -1004.45   53.54   14.27  101.90
 47  69   1.746   65.93  173.67  -22.10 -148.07   98.98   25.60   76.89
 49  69   1.756   65.98  179.87   -7.69 -149.53   98.72   30.34   91.02
 68  69  11.803   37.75 1131.80  296.60 -1131.80  154.04   -0.00  450.64
 69  70   1.808 -121.67 -164.72   88.80  174.87  -58.40   10.14   30.40
 24  70   1.120   59.85  109.17   20.51 -108.89   22.02    0.28   42.52
 70  71   0.941 -116.01  -87.48   32.90   88.26  -30.60    0.78    2.29
 24  72   1.194   75.79  117.93  -10.94 -111.00   34.04    6.93   23.10
 71  72   1.021 -113.56  -94.27   36.32   99.00  -21.55    4.73   14.77
 71  73   0.084   88.95    6.01   -5.71   -6.00    4.59    0.01   -1.13
 70  74   0.082   80.23    6.53   -4.90   -6.51    1.64    0.02   -3.25
 70  75   0.069   85.69    5.07   -4.61   -5.05    1.11    0.01   -3.51
 69  75   1.765 -116.91 -153.02   99.72  166.15  -72.94   13.13   26.78
 74  75   0.037 -133.72   -3.69    0.22    3.69   -1.24    0.00   -1.02
 76  77   0.905 -121.64  -87.55   16.10   91.21   -7.53    3.66    8.57
 69  77   4.314 -117.09 -374.84  242.61  433.13  -62.88   58.29  179.73
 75  77   1.081 -117.94 -101.52   35.28  108.65  -16.55    7.13   18.72
 77  78   0.947 -130.58  -94.62  -10.79   94.96   10.61    0.34   -0.18
 78  79   1.055 -131.25 -105.66  -14.51  106.26   16.56    0.61    2.05
 77  80   2.282 -119.01 -228.65   20.25  237.52    0.11    8.87   20.36
 77  80   1.076 -122.70 -108.23    2.59  111.64    7.19    3.41    9.78
 79  80   1.098 -122.32 -112.06   -0.54  113.95    7.05    1.88    6.51
 68  81   3.148 -125.97 -311.89    8.66  313.66  -67.40    1.77  -58.74
 81  80   3.244 -111.70 -313.66   67.40  313.66  -33.36   -0.00   34.04
 77  82   2.354  -96.92 -210.68  108.04  227.46  -68.21   16.78   39.83
 82  83   1.851  -89.43 -170.56   70.15  174.43  -61.23    3.87    8.91
 83  84   0.796  -80.96  -70.51   35.52   74.53  -29.56    4.02    5.95
 83  85   1.132  -90.03 -106.92   34.04  112.48  -18.35    5.56   15.69
 84  85   0.818  -80.43  -76.13   28.46   78.16  -25.38    2.03    3.09
 85  86   0.070  179.68   -0.88   -6.89    0.89    4.15    0.01   -2.74
 86  87   0.069 -152.42   -3.99   -5.65    4.00    1.16    0.01   -4.49
 85  88   0.969  -83.89  -94.08   22.95   95.97  -16.07    1.89    6.88
 85  89   1.008  -87.68  -99.28   17.37  101.73   -4.36    2.45   13.01
 88  89   1.043  -83.77 -103.17   14.57  104.69   -8.74    1.52    5.83
 89  90   0.404   94.78   40.54   -1.60  -39.69   -0.56    0.84   -2.17
 89  90   0.766   93.01   77.00   -0.67  -75.60   -3.95    1.40   -4.62
 90  91   0.189   90.13   18.60   -0.65  -18.50   -1.12    0.09   -1.77
 89  92   2.154   98.16  215.38  -21.29 -210.80   39.15    4.58   17.86
 89  92   0.683  102.03   67.66  -11.34  -65.84   14.48    1.81    3.14
 91  92   0.211  152.87    8.50  -18.80   -8.36   16.09    0.15   -2.71
 92  93   0.983   99.20   95.68  -22.12  -93.20   28.10    2.48    5.98
 92  94   0.976   99.66   94.81  -22.71  -90.27   33.56    4.54   10.85
 93  94   0.963   98.92   91.40  -29.20  -89.34   34.09    2.06    4.89
 94  95   1.155   89.42  112.71  -24.87 -110.96   29.54    1.76    4.68
 80  96   0.797  -88.24  -72.12   40.86   74.45  -34.06    2.34    6.81
 82  96   0.667  -99.71  -65.00   13.91   65.73  -16.91    0.73   -3.01
 94  96   1.273   91.08  123.34  -30.98 -119.00   42.70    4.34   11.72
 80  97   0.791  -87.49  -71.05   41.49   72.22  -38.23    1.17    3.26
 80  98   0.974  -93.74  -92.54   41.27   94.82  -33.93    2.29    7.34
 80  99   0.887  -92.68  -83.57   39.13   87.24  -28.20    3.67   10.94
 92 100   0.438  105.74   41.23  -14.64  -40.03   15.31    1.20    0.67
 94 100   0.626 -116.14  -60.93  -14.20   61.62   10.29    0.68   -3.91
 95  96   1.105   92.05  104.66  -34.14 -102.58   39.33    2.08    5.19
 96  97   0.828   94.13   75.69  -33.36  -74.52   36.93    1.17    3.57
 98 100   1.029  -93.69  -99.92   32.73  104.19  -18.45    4.26   14.28
 99 100   1.305  -95.88 -129.24   26.08  132.32  -14.40    3.08   11.68
100 101   0.404  -79.48  -38.16   15.16   38.63  -16.40    0.47   -1.24
 92 102   0.459  104.94   43.47  -14.75  -43.21   14.46    0.26   -0.30
101 102   0.439  -79.60  -41.93   14.10   42.41  -14.86    0.48   -0.76
100 103   0.102   13.74    4.38    9.45   -4.36  -14.87    0.03   -5.42
100 104   0.106   50.33    9.50    5.17   -9.44  -10.35    0.07   -5.18
103 104   0.115   63.65   11.19    3.04  -11.12   -6.90    0.07   -3.86
103 105   0.148   64.39   14.45    3.72  -14.33   -7.43    0.13   -3.71
100 106   0.137   54.64   12.69    5.71  -12.54  -11.42    0.14   -5.71
104 105   0.159   57.82   14.86    5.45  -14.83   -6.33    0.03   -0.88
105 106   0.076   44.74    6.36    4.12   -6.36   -5.50    0.01   -1.37
105 107   0.216   29.58   14.33   15.97  -14.04  -19.43    0.29   -3.47
105 108   0.042   56.47    3.87    1.50   -3.86   -3.30    0.01   -1.80
106 107   0.193   28.02   12.40   14.52  -12.16  -18.15    0.24   -3.63
108 109   0.048   35.62    3.56    3.20   -3.56   -3.94    0.00   -0.74
103 110   0.173   49.88   15.31    8.47  -15.18  -12.44    0.13   -3.96
109 110   0.043   21.22    2.36    3.54   -2.35   -5.48    0.01   -1.95
110 111   0.399  -77.69  -35.64   16.49   36.00  -17.19    0.36   -0.70
110 112   0.484   83.80   47.37   -5.24  -46.80    0.77    0.57   -4.47
 17 113   0.393   -6.43    2.98   39.44   -2.84  -39.73    0.14   -0.29
 32 113   0.126  154.90    3.23  -11.84   -3.16    7.03    0.06   -4.81
 32 114   0.144  -68.63  -12.03    7.30   12.06   -8.71    0.03   -1.41
 27 115   0.195  110.06   16.63   -9.03  -16.57    7.44    0.06   -1.58
114 115   0.161  -67.29  -13.26    8.31   13.27   -8.54    0.01   -0.23
 68 116   4.070  115.22  184.54 -358.81 -184.00  348.94    0.54   -9.87
 12 117   0.038  124.24    3.00   -2.41   -3.00   -1.20    0.00   -3.61
 75 118   0.795 -109.85  -70.27   36.20   71.19  -34.32    0.92    1.88
 76 118   0.842   68.82   77.35  -29.50  -76.19   32.02    1.16    2.51
                                        Total Perdas ->  339.12  648.44

  ***************** RESULTADOS - FLUXO DE POTÊNCIA **********************

                      MÉTODO NEWTON RAPHSON              


#####   HORÁRIO   => 02:00
#####   INTERVALO => 2

  NUMEROS DE BARRAS:	118
  NUMEROS DE LINHAS:	186
  QT. ITERAÇÕES:	6

  TENSÃO E POTÊNCIA POR BARRA
 -----------------------------------------------------------
 Barra Tensão  Ângulo      --Carga--       --Gerador-- 
       (pu)    (grau)      MW      MVar     MW      MVar  
 ------------------------------------------------------------
    1  0.993    73.97     7.10     3.80    -0.00    -5.00
    2  0.996    74.09     2.80     1.30    -0.00    -0.00
    3  0.996    74.04     5.50     1.40    -0.00     0.00
    4  0.998    74.43     2.10     0.80     9.00   -51.93
    5  1.002    74.47     0.00     0.00    -0.00     0.00
    6  0.995    74.28     7.30     3.10    -0.00   -13.00
    7  0.996    74.26     2.70     0.30    -0.00    -0.00
    8  1.015    75.17     0.00     0.00    28.00   -51.16
    9  1.050    78.29     0.00     0.00    -0.00     0.00
   10  1.050    81.65     0.00     0.00   200.00   -78.07
   11  0.998    74.07     9.80     3.20    -0.00     0.00
   12  0.997    74.27     6.60     1.40    85.00   -35.00
   13  0.999    72.94     4.80     2.20    -0.00     0.00
   14  1.000    73.02     2.00     0.10    -0.00     0.00
   15  1.004    69.92    12.60     4.20     0.00   -10.00
   16  1.001    72.96     3.50     1.40    -0.00     0.00
   17  1.009    70.56     1.50     0.40     0.00     0.00
   18  1.000    69.87     8.40     4.80    -0.00   -16.00
   19  1.003    69.30     6.30     3.50     0.00    -8.00
   20  1.007    68.56     2.50     0.40     0.00     0.00
   21  1.009    68.17     2.00     1.10     0.00     0.00
   22  1.010    67.85     1.40     0.70     0.00     0.00
   23  1.008    67.50     1.00     0.40     0.00     0.00
   24  0.992    61.97     0.00     0.00    13.00    24.32
   25  1.050    74.50     0.00     0.00    85.90    45.07
   26  1.015    77.08     0.00     0.00   241.70   -12.04
   27  0.968    70.82     8.70     1.80     9.00   -70.56
   28  0.968    70.59     2.40     1.00     0.00     0.00
   29  0.967    70.49     3.40     0.60     0.00     0.00
   30  1.001    71.73     0.00     0.00    -0.00     0.00
   31  0.967    70.53     6.00     3.80     7.00   -35.23
   32  0.976    69.93     8.30     3.20     0.00   -14.00
   33  1.014    67.36     3.20     1.30    -0.00     0.00
   34  1.024    64.82     8.30     3.60    -0.00    -8.00
   35  1.023    64.76     4.60     1.30    -0.00    -0.00
   36  1.022    64.77     4.30     2.40     0.00    -8.00
   37  1.025    64.82     0.00     0.00     0.00     0.00
   38  0.988    66.22     0.00     0.00     0.00     0.00
   39  0.989    62.43     3.80     1.50     0.00     0.00
   40  0.970    61.14     2.80     3.20    46.00   -60.89
   41  0.974    60.44     5.20     1.40     0.00     0.00
   42  0.985    58.96     5.20     3.20    59.00     0.98
   43  1.034    63.12     2.50     1.00     0.00     0.00
   44  1.039    61.16     2.20     1.10     0.00     0.00
   45  1.030    60.71     7.40     3.10     0.00     0.00
   46  1.005    60.15     3.90     1.40    19.00   -47.31
   47  1.005    57.06     4.80     0.00    -0.00     0.00
   48  1.027    61.22     2.80     1.50     0.00     0.00
   49  1.025    61.74    12.20     4.20   204.00    51.77
   50  1.010    62.34     2.40     0.60     0.00     0.00
   51  0.990    63.18     2.40     1.10     0.00     0.00
   52  0.985    63.38     2.50     0.70     0.00    -0.00
   53  0.969    64.18     3.20     1.50    -0.00    -0.00
   54  0.955    65.04    15.80     4.50    48.00  -139.38
   55  0.959    64.94     8.80     3.10     0.00    -8.00
   56  0.960    64.90    11.80     2.50     0.00    -8.00
   57  0.982    63.71     1.70     0.40     0.00     0.00
   58  0.978    63.84     1.70     0.40     0.00     0.00
   59  0.985    66.19    38.80    15.80   155.00   -55.07
   60  0.995    65.82    10.90     0.40     0.00    -0.00
   61  0.995    65.93     0.00     0.00   160.00   -44.45
   62  1.001    65.60    10.80     2.00    -0.00   -20.00
   63  0.974    64.68     0.00     0.00    -0.00     0.00
   64  0.987    63.80     0.00     0.00    -0.00     0.00
   65  1.005    60.10     0.00     0.00   391.00   165.94
   66  1.050    64.85     5.50     2.50   392.00    15.80
   67  1.028    65.06     3.90     1.00    -0.00     0.00
   68  0.992    51.36     0.00     0.00     0.00     0.00
   69  1.035    30.00     0.00     0.00  -2017.18   713.14
   70  0.998    41.37     9.20     2.80     0.00   -10.00
   71  0.993    42.86     0.00     0.00     0.00    -0.00
   72  0.980    51.27     0.00     0.00    12.00     0.21
   73  0.991    42.72     0.00     0.00     6.00    -2.77
   74  0.998    41.58     9.50     3.80     0.00    -6.00
   75  0.998    41.90     6.60     1.50     0.00     0.00
   76  0.985    47.14     9.50     5.00    -0.00    -8.00
   77  1.006    55.37     8.50     3.90     0.00    30.09
   78  1.011    56.00     9.90     3.60    -0.00     0.00
   79  1.020    57.37     5.50     4.50     0.00     0.00
   80  1.040    61.57    18.20     3.60   477.00   150.84
   81  0.989    55.25     0.00     0.00     0.00     0.00
   82  0.996    67.72     7.60     3.80     0.00     0.00
   83  0.991    71.85     2.80     1.40     0.00     0.00
   84  0.994    78.65     1.50     1.00     0.00     0.00
   85  1.000    81.99     3.40     2.10     0.00    -8.00
   86  1.007    81.96     2.90     1.40     0.00    -0.00
   87  1.015    82.37     0.00     0.00     4.00     1.06
   88  0.999    87.81     6.70     1.40    -0.00     0.00
   89  1.005    92.13     0.00     0.00   607.00   -48.28
   90  0.985    87.77    10.90     5.90    85.00     0.48
   91  0.980    86.84     0.00     0.00    10.00   -19.94
   92  0.999    85.80     9.10     1.40     0.00    -3.00
   93  0.996    80.78     1.70     1.00     0.00     0.00
   94  0.999    76.54     4.20     2.20     0.00     0.00
   95  0.996    73.51     5.90     4.30     0.00     0.00
   96  0.998    69.85     5.30     2.10     0.00     0.00
   97  1.016    65.68     2.10     1.30     0.00     0.00
   98  1.022    67.61     4.80     1.10     0.00     0.00
   99  1.010    72.22     0.00     0.00    42.00    -1.70
  100  1.017    78.43     5.20     2.50   252.00    30.85
  101  1.008    81.41     3.10     2.10     0.00     0.00
  102  1.002    84.30     0.70     0.40     0.00     0.00
  103  1.010    78.46     3.20     2.20    40.00     1.95
  104  0.997    77.60     5.30     3.50     0.00    -8.00
  105  0.994    77.32     4.30     3.60     0.00    -8.00
  106  0.990    77.16     6.00     2.20     0.00     0.00
  107  0.952    76.35     3.90     1.70    22.00   -41.76
  108  0.991    77.21     0.30     0.10     0.00     0.00
  109  0.989    77.18     1.10     0.40     0.00     0.00
  110  0.985    77.15     5.50     4.20     0.00    -8.00
  111  0.980    78.98     0.00     0.00    36.00   -17.37
  112  0.975    75.33     3.50     1.80    43.00     2.23
  113  0.993    70.58     0.00     0.00     6.00   -44.19
  114  0.973    70.22     1.10     0.40    -0.00     0.00
  115  0.972    70.27     3.10     1.00     0.00    -0.00
  116  1.005    50.87     0.00     0.00   184.00   324.68
  117  0.997    74.03     2.80     1.10    -0.00     0.00
  118  0.990    44.28     4.60     2.10     0.00    -0.00

             Total->    511.60   200.00  1961.42   525.33

  CORRENTE e FLUXO DE POTÊNCIA POR LINHA
-----------------------------------------------------------------------------------------
 De Para  I(pu) Ângulo     FLUXO DIRETO     FLUXO INVERSO      PERDAS
                (grau)     MW   -> MVar     MW   <- MVar    MW      MVar 
-----------------------------------------------------------------------------------------
  1   2   0.036 -152.10   -2.47   -2.57    2.48    0.07    0.00   -2.50
  1   3   0.078 -159.45   -4.63   -6.23    4.63    5.18    0.01   -1.05
  4   5   0.534 -174.12  -19.48  -49.58   19.53   49.59    0.05    0.02
  3   5   0.093 -138.87   -7.77   -5.03    7.79    2.28    0.02   -2.76
  5   6   0.139   22.67    8.63   10.96   -8.60  -12.27    0.02   -1.31
  6   7   0.041  145.52    1.30   -3.83   -1.30    3.29    0.00   -0.54
  8   9   2.479 -142.98 -197.92 -155.45  199.06   45.83    1.14 -109.61
  8   5   1.170    8.55   47.11  108.96  -47.11 -105.41   -0.00    3.54
  9  10   1.945 -114.68 -199.06  -45.83  200.00  -78.07    0.94 -123.90
  4  11   0.090   95.04    8.38   -3.15   -8.36    1.46    0.02   -1.69
  5  11   0.114   62.35   11.16    2.40  -11.14   -4.04    0.03   -1.65
 11  12   0.173  -73.91  -14.61    9.13   14.62   -9.57    0.02   -0.44
  2  12   0.055 -120.42   -5.28   -1.37    5.28   -0.18    0.01   -1.54
  3  12   0.028 -139.30   -2.36   -1.55    2.36   -2.47    0.00   -4.02
  7  12   0.039 -174.43   -1.40   -3.59    1.40    2.72    0.00   -0.86
 11  13   0.262   95.93   24.30   -9.75  -24.15    8.37    0.15   -1.38
 12  14   0.302   99.49   27.19  -12.81  -27.00   11.63    0.19   -1.18
 13  15   0.221  101.58   19.35  -10.57  -19.03    5.33    0.32   -5.24
 14  15   0.276   98.15   25.00  -11.73  -24.58    8.07    0.42   -3.65
 12  16   0.274   99.48   24.74  -11.65  -24.58   10.12    0.15   -1.53
 15  17   0.267 -118.61  -26.55   -3.98   26.64   -0.21    0.09   -4.19
 16  17   0.240  101.60   21.08  -11.52  -20.84    7.77    0.24   -3.75
 17  18   0.279   51.00   26.56    9.44  -26.46  -10.35    0.10   -0.91
 18  19   0.209   99.94   18.06  -10.45  -18.01    9.52    0.05   -0.94
 19  20   0.121  104.56    9.95   -7.04   -9.92    4.18    0.03   -2.86
 15  19   0.266   82.30   26.05   -5.72  -25.97    4.98    0.08   -0.74
 20  21   0.087  100.22    7.42   -4.58   -7.41    2.44    0.01   -2.14
 21  22   0.064  101.36    5.41   -3.54   -5.40    1.06    0.01   -2.47
 22  23   0.043   91.63    4.00   -1.76   -3.99   -2.33    0.01   -4.09
 23  24   1.917   71.30  192.85  -12.84 -187.90   25.91    4.95   13.07
 23  25   1.629 -117.85 -163.56  -15.31  167.68   27.30    4.12   11.99
 26  25   1.306   67.03  130.51   23.11 -130.51  -17.11   -0.00    6.00
 25  27   0.571   38.91   48.73   34.88  -47.47  -46.41    1.26  -11.54
 27  28   0.047   94.63    4.20   -1.85   -4.19   -0.15    0.00   -2.01
 28  29   0.020   95.82    1.79   -0.85   -1.79   -1.38    0.00   -2.22
 30  17   1.068   12.76   55.10   91.61  -55.10  -87.53    0.00    4.08
  8  30   1.211   77.34  122.81   -4.67 -122.16  -39.94    0.65  -44.61
 26  30   1.149   94.62  111.19  -35.15 -110.22  -46.66    0.97  -81.81
 17  31   0.235   -0.42    7.74   22.45   -7.43  -25.33    0.31   -2.88
 29  31   0.018  -83.62   -1.61    0.78    1.61   -1.55    0.00   -0.77
 23  32   0.396  -63.68  -26.30   30.07   26.92  -39.36    0.62   -9.29
 31  32   0.144  131.20    6.82  -12.15   -6.77    9.95    0.05   -2.19
 27  32   0.225  117.09   15.05  -15.74  -14.94   14.28    0.11   -1.46
 15  33   0.361   99.53   31.51  -17.91  -31.04   16.21    0.47   -1.70
 19  34   0.335  103.66   27.72  -18.96  -26.96   14.95    0.76   -4.00
 35  36   0.036  -43.35   -1.15    3.53    1.15   -3.81    0.00   -0.28
 35  37   0.058 -169.71   -3.45   -4.83    3.45    3.46    0.00   -1.37
 33  37   0.324   99.54   27.84  -17.51  -27.43   15.12    0.41   -2.39
 34  36   0.079   17.03    5.46    6.02   -5.45   -6.59    0.01   -0.58
 34  37   0.068 -178.88   -3.10   -6.28    3.10    5.25    0.00   -1.03
 38  37   1.165   13.80   70.25   91.28  -70.25  -86.82    0.00    4.45
 37  39   0.492   41.57   46.36   19.92  -45.56  -20.04    0.80   -0.11
 37  40   0.466   44.25   44.76   16.80  -43.43  -17.20    1.33   -0.40
 30  38   1.772   73.35  177.27   -5.01 -175.81  -19.65    1.47  -24.66
 39  40   0.462   38.50   41.76   18.54  -41.36  -18.72    0.40   -0.18
 40  41   0.248   95.34   19.88  -13.51  -19.80   12.65    0.09   -0.86
 40  42   0.224  103.42   16.11  -14.65  -15.86   11.00    0.24   -3.65
 41  42   0.208  104.35   14.60  -14.05  -14.44   11.27    0.16   -2.78
 43  44   0.157   95.58   13.67   -8.69  -13.55    2.67    0.12   -6.02
 34  43   0.195  100.24   16.31  -11.60  -16.17    7.69    0.14   -3.91
 44  45   0.128   29.38   11.35    7.03  -11.30   -9.26    0.04   -2.23
 45  46   0.175   12.39   11.99   13.47  -11.85  -16.43    0.14   -2.96
 46  47   0.412   77.34   39.55  -12.24  -38.92   11.16    0.63   -1.08
 46  48   0.160 -158.12  -12.60   -9.94   12.73    5.47    0.13   -4.47
 47  49   1.301 -117.57 -130.22   12.22  133.46   -3.27    3.24    8.95
 42  49   0.212 -156.90  -16.95  -12.25   17.21    4.73    0.26   -7.52
 42  49   0.212 -156.90  -16.95  -12.25   17.21    4.73    0.26   -7.52
 45  49   0.085  -97.13   -8.09    3.30    8.15   -7.81    0.06   -4.52
 48  49   0.174  -89.12  -15.53    8.85   15.59  -10.01    0.06   -1.17
 49  50   0.224  -44.43   -6.39   22.05    6.54  -23.58    0.15   -1.53
 49  51   0.278  -45.23   -8.32   27.26    8.74  -29.55    0.42   -2.28
 51  52   0.093  -44.46   -2.79    8.76    2.81  -10.06    0.02   -1.30
 52  53   0.109  -56.15   -5.31    9.36    5.37  -12.98    0.07   -3.61
 53  54   0.148  -62.57   -8.57   11.48    8.64  -14.03    0.07   -2.56
 49  54   0.269  -54.84  -12.32   24.62   12.99  -29.21    0.67   -4.59
 49  54   0.263  -52.10  -10.88   24.63   11.65  -29.22    0.77   -4.59
 54  55   0.073  149.25    0.70   -6.93   -0.70    5.10    0.01   -1.82
 54  56   0.548  145.50    8.68  -51.64   -8.60   51.25    0.08   -0.39
 55  56   0.061  120.16    3.34   -4.81   -3.34    4.47    0.00   -0.34
 56  57   0.299  131.87   11.24  -26.44  -10.96   24.96    0.29   -1.48
 50  57   0.244  -48.91   -8.94   22.98    9.26  -25.36    0.32   -2.39
 56  58   0.257  129.96   10.39  -22.34  -10.18   20.66    0.21   -1.69
 51  58   0.216  -49.82   -8.35   19.69    8.48  -21.06    0.13   -1.37
 54  59   0.173 -165.82  -10.46  -12.85   10.57    7.75    0.12   -5.10
 56  59   0.142 -154.77  -10.48   -8.69   10.61    3.71    0.13   -4.98
 56  59   0.147 -153.56  -11.02   -8.75   11.16    4.10    0.14   -4.65
 55  59   0.168 -159.93  -11.44  -11.40   11.55    6.55    0.11   -4.85
 59  60   0.101  140.38    2.70   -9.53   -2.68    5.94    0.02   -3.59
 59  61   0.090  146.46    1.50   -8.77   -1.49    5.04    0.02   -3.73
 60  61   0.137  -91.00  -12.56    5.38   12.57   -6.80    0.01   -1.42
 60  62   0.126  135.51    4.34  -11.72   -4.32   10.34    0.02   -1.38
 61  62   0.222  126.16   10.94  -19.14  -10.90   18.34    0.04   -0.80
 63  59   1.069  -66.18  -68.11   78.73   68.11  -74.67    0.00    4.06
 63  64   1.069  113.82   68.11  -78.73  -67.94   59.93    0.17  -18.80
 64  61   1.428 -104.38 -137.98   28.87  137.98  -23.56    0.00    5.30
 38  65   1.291  100.38  105.56  -71.63 -104.49  -20.62    1.07  -92.25
 64  65   2.272   87.13  205.91  -88.80 -204.61   65.78    1.31  -23.02
 49  66   0.661 -130.63  -66.16  -14.50   66.94   15.81    0.78    1.31
 49  66   0.661 -130.63  -66.16  -14.50   66.94   15.81    0.78    1.31
 62  66   0.256  152.64    1.32  -25.58   -1.07   20.62    0.25   -4.96
 62  67   0.253  148.55    3.10  -25.10   -2.96   22.56    0.15   -2.53
 65  66   2.645 -101.78 -252.66   82.72  252.66  -60.08   -0.00   22.63
 66  67   0.202  -22.32    1.05   21.14   -0.94  -23.56    0.10   -2.42
 65  68   9.488   57.81  952.75   38.07 -940.28   42.89   12.47   80.95
 47  69   1.652   65.16  164.34  -23.38 -141.44   91.37   22.90   67.99
 49  69   1.666   65.22  170.40  -10.36 -143.14   91.23   27.26   80.87
 68  69  11.254   36.88 1081.19  279.10 -1081.19  130.55    0.00  409.65
 69  70   1.539 -122.59 -141.42   73.33  148.81  -54.66    7.39   18.67
 24  70   0.858   56.20   84.69    8.56  -84.52   12.11    0.17   20.67
 70  71   0.721 -113.24  -64.95   30.83   65.41  -29.84    0.46    0.98
 24  72   0.915   68.39   90.21  -10.15  -86.14   21.74    4.07   11.58
 71  72   0.774 -115.58  -71.42   28.21   74.14  -21.53    2.73    6.69
 71  73   0.063   27.68    6.00    1.63   -6.00   -2.77    0.00   -1.14
 70  74   0.029 -162.80   -2.61   -1.17    2.61   -2.17    0.00   -3.34
 70  75   0.059 -137.75   -5.92    0.09    5.94   -3.62    0.02   -3.53
 69  75   1.629 -117.51 -142.21   90.56  153.42  -69.58   11.22   20.98
 74  75   0.129 -118.77  -12.11    4.32   12.13   -5.28    0.02   -0.96
 76  77   0.931 -121.31  -89.84   18.35   93.71   -9.08    3.88    9.27
 69  77   4.223 -117.30 -367.77  236.10  423.63  -64.32   55.86  171.78
 75  77   1.118 -117.87 -104.62   38.55  112.24  -18.17    7.63   20.37
 77  78   0.942 -131.76  -94.01  -11.75   94.35   11.57    0.33   -0.19
 78  79   1.042 -132.27 -104.25  -15.17  104.84   17.15    0.59    1.98
 77  80   2.250 -119.87 -225.55   18.77  234.18    0.89    8.62   19.65
 77  80   1.061 -123.57 -106.73    1.98  110.04    7.46    3.31    9.44
 79  80   1.081 -123.05 -110.34   -0.82  112.16    7.07    1.82    6.25
 68  81   3.282 -126.31 -325.40   13.25  327.33  -70.28    1.93  -57.03
 81  80   3.383 -112.63 -327.33   70.28  327.33  -33.25   -0.00   37.03
 77  82   2.367  -97.44 -211.79  108.78  228.75  -68.42   16.96   40.36
 82  83   1.864  -89.94 -171.73   70.56  175.65  -61.47    3.92    9.09
 83  84   0.801  -81.45  -70.94   35.68   75.01  -29.63    4.07    6.05
 83  85   1.138  -90.50 -107.51   34.22  113.14  -18.32    5.62   15.90
 84  85   0.822  -80.84  -76.51   28.63   78.56  -25.50    2.05    3.13
 85  86   0.070 -179.10   -1.08   -6.90    1.09    4.16    0.01   -2.74
 86  87   0.068 -152.34   -3.99   -5.56    4.00    1.06    0.01   -4.49
 85  88   0.973  -84.28  -94.51   23.09   96.42  -16.13    1.91    6.97
 85  89   1.010  -88.03  -99.51   17.52  101.97   -4.42    2.46   13.09
 88  89   1.043  -84.06 -103.12   14.73  104.63   -8.91    1.52    5.82
 89  90   0.402   94.35   40.34   -1.56  -39.50   -0.63    0.84   -2.20
 89  90   0.762   92.59   76.62   -0.61  -75.23   -4.07    1.39   -4.68
 90  91   0.191   89.95   18.83   -0.72  -18.74   -1.04    0.09   -1.76
 89  92   2.157   97.79  215.69  -21.40 -211.10   39.33    4.59   17.93
 89  92   0.684  101.66   67.75  -11.38  -65.93   14.54    1.82    3.16
 91  92   0.212  152.03    8.74  -18.90   -8.59   16.20    0.15   -2.70
 92  93   0.988   98.80   96.19  -22.21  -93.69   28.28    2.51    6.07
 92  94   0.981   99.22   95.36  -22.75  -90.78   33.77    4.59   11.02
 93  94   0.969   98.44   91.99  -29.28  -89.90   34.25    2.08    4.97
 94  95   1.163   89.02  113.46  -25.12 -111.68   29.87    1.78    4.75
 80  96   0.811  -89.03  -73.52   41.42   75.94  -34.19    2.42    7.23
 82  96   0.664 -100.14  -64.62   13.90   65.35  -16.93    0.73   -3.03
 94  96   1.284   90.55  124.43  -31.06 -120.01   43.02    4.41   11.96
 80  97   0.806  -88.34  -72.56   42.05   73.77  -38.56    1.21    3.49
 80  98   0.990  -94.39  -93.98   41.92   96.34  -34.26    2.36    7.67
 80  99   0.901  -93.37  -84.85   39.68   88.63  -28.24    3.78   11.43
 92 100   0.440  105.26   41.44  -14.65  -40.23   15.37    1.21    0.72
 94 100   0.630 -116.35  -61.41  -14.04   62.10   10.17    0.69   -3.88
 95  96   1.116   91.42  105.78  -34.17 -103.66   39.49    2.12    5.32
 96  97   0.842   93.34   77.08  -33.50  -75.87   37.26    1.21    3.77
 98 100   1.041  -94.24 -101.14   33.16  105.51  -18.40    4.37   14.76
 99 100   1.320  -96.29 -130.63   26.55  133.78  -14.56    3.15   11.99
100 101   0.407  -80.15  -38.50   15.10   38.97  -16.31    0.47   -1.21
 92 102   0.460  104.64   43.52  -14.85  -43.26   14.56    0.26   -0.29
101 102   0.441  -79.92  -42.07   14.21   42.56  -14.96    0.49   -0.75
100 103   0.101    5.75    3.07    9.85   -3.04  -15.27    0.03   -5.42
100 104   0.101   48.71    8.95    5.11   -8.89  -10.32    0.06   -5.21
103 104   0.112   63.61   10.93    2.90  -10.87   -6.77    0.07   -3.88
103 105   0.144   64.02   14.10    3.63  -13.98   -7.36    0.12   -3.73
100 106   0.132   53.25   12.12    5.70  -11.98  -11.44    0.13   -5.74
104 105   0.155   56.45   14.46    5.59  -14.43   -6.48    0.02   -0.88
105 106   0.076   44.08    6.29    4.12   -6.28   -5.50    0.01   -1.38
105 107   0.217   28.51   14.17   16.19  -13.88  -19.65    0.29   -3.46
105 108   0.040   52.87    3.66    1.66   -3.65   -3.46    0.01   -1.80
106 107   0.194   26.92   12.26   14.74  -12.02  -18.37    0.24   -3.63
108 109   0.048   32.12    3.35    3.36   -3.35   -4.10    0.00   -0.74
103 110   0.169   48.63   14.81    8.49  -14.68  -12.48    0.13   -3.99
109 110   0.044   18.47    2.25    3.70   -2.24   -5.65    0.01   -1.95
110 111   0.399  -77.78  -35.64   16.67   36.00  -17.37    0.36   -0.70
110 112   0.480   83.12   47.06   -4.92  -46.50    0.43    0.56   -4.49
 17 113   0.491   -3.62   13.51   47.68  -13.29  -47.72    0.22   -0.03
 32 113   0.113 -159.20   -7.23   -8.36    7.29    3.52    0.06   -4.84
 32 114   0.091  -64.99   -6.27    6.29    6.29   -7.78    0.01   -1.49
 27 115   0.139  109.28   10.52   -8.35  -10.49    6.63    0.03   -1.72
114 115   0.107  -64.81   -7.39    7.38    7.39   -7.63    0.00   -0.25
 68 116   3.856  112.53  184.49 -335.24 -184.00  324.68    0.49  -10.55
 12 117   0.037  115.38    2.80   -2.45   -2.80   -1.10    0.00   -3.55
 75 118   0.831 -110.49  -73.48   38.43   74.49  -36.27    1.01    2.16
 76 118   0.875   68.46   80.34  -31.35  -79.09   34.17    1.25    2.82
                                        Total Perdas ->  301.82  414.34

  ***************** RESULTADOS - FLUXO DE POTÊNCIA **********************

                      MÉTODO NEWTON RAPHSON              


#####   HORÁRIO   => 03:00
#####   INTERVALO => 3

  NUMEROS DE BARRAS:	118
  NUMEROS DE LINHAS:	186
  QT. ITERAÇÕES:	6

  TENSÃO E POTÊNCIA POR BARRA
 -----------------------------------------------------------
 Barra Tensão  Ângulo      --Carga--       --Gerador-- 
       (pu)    (grau)      MW      MVar     MW      MVar  
 ------------------------------------------------------------
    1  0.990    80.48     7.60     4.00     0.00    -5.00
    2  0.992    80.50     3.00     1.30     0.00    -0.00
    3  0.994    80.60     5.80     1.50    -0.00     0.00
    4  0.998    81.24     1.20     0.50     9.00   -46.02
    5  1.002    81.32     0.00     0.00    -0.00     0.00
    6  0.993    80.88     7.80     3.30    -0.00   -13.00
    7  0.993    80.76     2.90     0.30     0.00    -0.00
    8  1.015    82.41     0.00     0.00    28.00   -36.05
    9  1.050    85.54     0.00     0.00     0.00    -0.00
   10  1.050    88.90     0.00     0.00   200.00   -78.07
   11  0.995    80.63    10.50     3.40    -0.00     0.00
   12  0.993    80.63     7.00     1.50    40.00   -35.00
   13  0.996    79.68     5.10     2.40    -0.00     0.00
   14  0.996    79.65     2.10     0.10    -0.00     0.00
   15  1.000    77.31    13.50     4.50     0.00   -10.00
   16  0.997    79.80     3.80     1.50    -0.00     0.00
   17  1.005    78.48     1.60     0.40     0.00     0.00
   18  0.996    77.56     9.00     5.10    -0.00   -16.00
   19  0.999    76.78     6.80     3.80     0.00    -8.00
   20  1.003    76.80     2.70     0.40     0.00     0.00
   21  1.005    76.97     2.10     1.20     0.00     0.00
   22  1.006    77.29     1.50     0.80     0.00     0.00
   23  1.005    78.00     1.10     0.40     0.00     0.00
   24  0.992    70.70     0.00     0.00    13.00    64.53
   25  1.050    88.40     0.00     0.00   220.00    42.14
   26  1.015    90.48     0.00     0.00   326.10    -0.27
   27  0.968    81.67     9.30     1.90     9.00   -67.32
   28  0.968    80.94     2.50     1.10     0.00     0.00
   29  0.967    80.28     3.60     0.60     0.00     0.00
   30  0.994    79.76     0.00     0.00     0.00     0.00
   31  0.967    80.12     6.50     4.00     7.00   -32.15
   32  0.975    80.11     8.80     3.40     0.00   -14.00
   33  1.007    73.82     3.40     1.30     0.00     0.00
   34  1.017    70.25     8.80     3.90     0.00    -8.00
   35  1.015    70.18     5.00     1.30     0.00    -0.00
   36  1.015    70.19     4.60     2.50     0.00    -8.00
   37  1.018    70.25     0.00     0.00     0.00     0.00
   38  0.980    71.80     0.00     0.00    -0.00     0.00
   39  0.986    67.14     4.00     1.60     0.00    -0.00
   40  0.970    65.43     3.00     3.40    46.00   -49.19
   41  0.973    64.45     5.50     1.50     0.00     0.00
   42  0.985    62.24     5.50     3.40    59.00     2.88
   43  1.027    67.47     2.70     1.10     0.00    -0.00
   44  1.036    63.96     2.40     1.20     0.00    -0.00
   45  1.028    62.96     7.90     3.30     0.00     0.00
   46  1.005    61.96     4.20     1.50    19.00   -44.15
   47  1.003    58.59     5.10     0.00    -0.00     0.00
   48  1.027    62.94     3.00     1.60     0.00     0.00
   49  1.025    63.44    13.00     4.50   204.00    60.56
   50  1.010    64.01     2.50     0.60     0.00     0.00
   51  0.990    64.79     2.50     1.20     0.00     0.00
   52  0.985    64.98     2.70     0.80     0.00     0.00
   53  0.969    65.74     3.40     1.60     0.00     0.00
   54  0.955    66.59    16.90     4.80    48.00  -137.88
   55  0.959    66.49     9.40     3.30     0.00    -8.00
   56  0.960    66.45    12.60     2.70     0.00    -8.00
   57  0.982    65.31     1.80     0.40     0.00     0.00
   58  0.978    65.43     1.80     0.40     0.00     0.00
   59  0.985    67.72    41.50    16.90   155.00   -53.60
   60  0.995    67.38    11.70     0.40    -0.00     0.00
   61  0.995    67.49     0.00     0.00   160.00   -44.36
   62  1.001    67.17    11.50     2.10     0.00   -20.00
   63  0.974    66.24     0.00     0.00     0.00    -0.00
   64  0.987    65.38     0.00     0.00     0.00     0.00
   65  1.005    61.72     0.00     0.00   391.00   200.50
   66  1.050    66.49     5.80     2.70   392.00    16.28
   67  1.028    66.66     4.20     1.10     0.00     0.00
   68  0.991    52.39     0.00     0.00    -0.00     0.00
   69  1.035    30.00     0.00     0.00  -2120.02   781.53
   70  0.993    43.43     9.90     3.00     0.00   -10.00
   71  0.989    45.43     0.00     0.00     0.00     0.00
   72  0.980    56.61     0.00     0.00    12.00    12.85
   73  0.991    45.24     0.00     0.00     6.00     4.79
   74  0.994    42.83    10.20     4.00     0.00    -6.00
   75  0.995    42.91     7.00     1.60     0.00     0.00
   76  0.984    47.95    10.20     5.40    -0.00    -8.00
   77  1.006    55.92     9.20     4.20     0.00    37.06
   78  1.011    56.56    10.70     3.90    -0.00     0.00
   79  1.020    57.94     5.80     4.80     0.00     0.00
   80  1.040    62.20    19.50     3.90   477.00   147.78
   81  0.989    56.14     0.00     0.00     0.00     0.00
   82  0.996    68.19     8.10     4.00     0.00     0.00
   83  0.991    72.29     3.00     1.50     0.00     0.00
   84  0.994    79.06     1.60     1.10     0.00     0.00
   85  1.000    82.38     3.60     2.30     0.00    -8.00
   86  1.007    82.33     3.10     1.50     0.00    -0.00
   87  1.015    82.74     0.00     0.00     4.00     1.16
   88  0.999    88.18     7.20     1.50    -0.00     0.00
   89  1.005    92.50     0.00     0.00   607.00   -48.01
   90  0.985    88.11    11.70     6.30    85.00     1.14
   91  0.980    87.19     0.00     0.00    10.00   -19.92
   92  0.999    86.17     9.80     1.50     0.00    -3.00
   93  0.996    81.18     1.80     1.10     0.00     0.00
   94  0.999    76.96     4.50     2.40     0.00     0.00
   95  0.996    73.96     6.30     4.60     0.00     0.00
   96  0.999    70.33     5.70     2.30     0.00     0.00
   97  1.017    66.23     2.30     1.30     0.00     0.00
   98  1.022    68.15     5.10     1.20     0.00     0.00
   99  1.010    72.70     0.00     0.00    42.00    -2.12
  100  1.017    78.84     5.50     2.70   252.00    30.95
  101  1.008    81.80     3.30     2.30     0.00     0.00
  102  1.002    84.68     0.80     0.40     0.00     0.00
  103  1.010    78.82     3.40     2.40    40.00     2.76
  104  0.997    77.95     5.70     3.80     0.00    -8.00
  105  0.993    77.66     4.60     3.90     0.00    -8.00
  106  0.990    77.50     6.50     2.40     0.00     0.00
  107  0.952    76.66     4.20     1.80    22.00   -41.22
  108  0.990    77.54     0.30     0.10     0.00     0.00
  109  0.989    77.50     1.20     0.40     0.00     0.00
  110  0.985    77.47     5.80     4.50     0.00    -8.00
  111  0.980    79.29     0.00     0.00    36.00   -17.19
  112  0.975    75.63     3.80     1.90    43.00     2.67
  113  0.993    78.73     0.00     0.00     6.00   -32.70
  114  0.972    80.67     1.20     0.40    -0.00     0.00
  115  0.971    80.78     3.30     1.10    -0.00     0.00
  116  1.005    51.90     0.00     0.00   184.00   347.59
  117  0.992    80.38     3.00     1.20     0.00     0.00
  118  0.988    45.19     5.00     2.30     0.00    -0.00

             Total->    546.10   213.50  2032.08   794.98

  CORRENTE e FLUXO DE POTÊNCIA POR LINHA
-----------------------------------------------------------------------------------------
 De Para  I(pu) Ângulo     FLUXO DIRETO     FLUXO INVERSO      PERDAS
                (grau)     MW   -> MVar     MW   <- MVar    MW      MVar 
-----------------------------------------------------------------------------------------
  1   2   0.025 -171.61   -0.75   -2.32    0.75   -0.18    0.00   -2.49
  1   3   0.097 -143.81   -6.85   -6.68    6.86    5.65    0.01   -1.03
  4   5   0.522 -159.37  -25.56  -45.39   25.61   45.40    0.05    0.01
  3   5   0.140 -124.85  -12.56   -5.98   12.61    3.34    0.04   -2.63
  5   6   0.214   44.11   17.04   12.94  -16.99  -14.10    0.06   -1.16
  6   7   0.095   94.35    9.19   -2.20   -9.18    1.68    0.00   -0.52
  8   9   2.479 -135.73 -197.92 -155.45  199.06   45.83    1.14 -109.61
  8   5   1.309   26.34   74.16  110.26  -74.16 -105.82    0.00    4.44
  9  10   1.945 -107.43 -199.06  -45.83  200.00  -78.07    0.94 -123.90
  4  11   0.154   85.44   15.36   -1.13  -15.31   -0.45    0.05   -1.57
  5  11   0.193   69.44   18.90    3.97  -18.82   -5.45    0.08   -1.47
 11  12   0.111    8.14    3.33   10.56   -3.33  -11.04    0.01   -0.47
  2  12   0.039 -116.20   -3.75   -1.12    3.75   -0.41    0.00   -1.54
  3  12   0.012  175.36   -0.10   -1.18    0.10   -2.83    0.00   -4.00
  7  12   0.066   98.23    6.28   -1.98   -6.28    1.13    0.00   -0.85
 11  13   0.220  102.31   20.30   -8.07  -20.20    6.55    0.10   -1.52
 12  14   0.238  108.83   20.83  -11.17  -20.71    9.76    0.12   -1.41
 13  15   0.176  110.35   15.10   -8.95  -14.90    3.36    0.20   -5.59
 14  15   0.212  107.56   18.61   -9.86  -18.37    5.65    0.24   -4.21
 12  16   0.180  114.11   14.92   -9.87  -14.86    8.01    0.06   -1.86
 15  17   0.464 -102.94  -46.34   -0.20   46.63   -3.32    0.28   -3.52
 16  17   0.146  120.49   11.06   -9.51  -10.98    5.15    0.08   -4.36
 17  18   0.353   63.17   34.23    9.37  -34.08  -10.03    0.15   -0.66
 18  19   0.275  101.38   25.08  -11.07  -24.99   10.30    0.08   -0.77
 19  20   0.050  178.81   -1.04   -4.86    1.04    1.89    0.00   -2.97
 15  19   0.226   87.96   22.25   -4.19  -22.19    3.38    0.06   -0.81
 20  21   0.044 -134.69   -3.74   -2.29    3.74    0.13    0.00   -2.16
 21  22   0.060 -115.84   -5.84   -1.33    5.85   -1.12    0.01   -2.45
 22  23   0.073 -100.18   -7.35    0.32    7.37   -4.31    0.02   -3.99
 23  24   2.504   84.57  249.90  -28.81 -241.45   54.62    8.44   25.81
 23  25   2.349 -100.45 -235.94    6.39  244.56   28.69    8.62   35.09
 26  25   1.063   78.66  105.59   22.10 -105.59  -18.12    0.00    3.98
 25  27   0.828   67.11   81.04   31.57  -78.65  -37.33    2.39   -5.76
 27  28   0.145   97.90   13.46   -3.92  -13.42    2.07    0.04   -1.85
 28  29   0.117   97.10   10.92   -3.17  -10.89    1.06    0.03   -2.10
 30  17   1.023   25.96   60.11   82.12  -60.11  -78.37    0.00    3.75
  8  30   0.948   76.96   95.76    9.14  -95.32  -55.92    0.44  -46.78
 26  30   2.184   96.27  220.51  -22.37 -216.69  -28.20    3.82  -50.57
 17  31   0.272  -31.70   -9.44   25.69    9.84  -28.25    0.40   -2.56
 29  31   0.077   93.12    7.29   -1.66   -7.28    0.90    0.01   -0.76
 23  32   0.344  -52.43  -22.43   26.33   22.91  -36.06    0.48   -9.74
 31  32   0.094 -176.72   -2.06   -8.81    2.08    6.51    0.02   -2.30
 27  32   0.355  114.61   28.84  -18.68  -28.56   17.79    0.28   -0.89
 15  33   0.479  100.87   43.86  -19.12  -43.01   18.69    0.85   -0.44
 19  34   0.463  103.24   41.42  -20.62  -39.90   19.20    1.52   -1.42
 35  36   0.040  -39.86   -1.39    3.81    1.39   -4.08    0.00   -0.27
 35  37   0.062 -164.56   -3.61   -5.11    3.61    3.76    0.00   -1.35
 33  37   0.441  100.59   39.61  -19.99  -38.83   18.89    0.78   -1.09
 34  36   0.082   25.95    6.00    5.85   -5.99   -6.42    0.01   -0.57
 34  37   0.086  174.88   -2.22   -8.49    2.22    7.48    0.00   -1.01
 38  37   1.160   24.17   76.58   83.95  -76.58  -79.54   -0.00    4.41
 37  39   0.565   56.70   55.88   13.47  -54.85  -12.76    1.04    0.71
 37  40   0.537   59.67   53.70   10.04  -51.97   -9.27    1.74    0.77
 30  38   2.533   79.30  251.90    2.01 -248.90   -8.17    3.00   -6.16
 39  40   0.528   54.77   50.85   11.16  -50.33  -10.95    0.52    0.21
 40  41   0.336   93.96   28.63  -15.56  -28.47   14.95    0.16   -0.61
 40  42   0.308   99.71   24.67  -16.81  -24.18   13.96    0.48   -2.85
 41  42   0.290  100.06   22.97  -16.45  -22.65   14.22    0.32   -2.23
 43  44   0.264   93.98   24.27  -12.10  -23.88    7.21    0.39   -4.90
 34  43   0.302   97.35   27.32  -13.98  -26.97   11.00    0.35   -2.98
 44  45   0.209   57.80   21.48    2.32  -21.38   -4.31    0.10   -1.99
 45  46   0.197   30.56   17.10   10.85  -16.92  -13.70    0.17   -2.85
 46  47   0.449   76.96   43.58  -11.68  -42.83   11.01    0.75   -0.67
 46  48   0.155 -158.66  -11.86  -10.17   11.98    5.67    0.12   -4.50
 47  49   1.355 -116.70 -135.46   11.16  138.97   -1.32    3.51    9.84
 42  49   0.171 -176.13   -8.84  -14.35    8.97    6.26    0.13   -8.09
 42  49   0.171 -176.13   -8.84  -14.35    8.97    6.26    0.13   -8.09
 45  49   0.036 -105.65   -3.61    0.73    3.63   -5.37    0.01   -4.64
 48  49   0.168  -87.35  -14.98    8.55   15.03   -9.72    0.05   -1.18
 49  50   0.219  -40.76   -5.50   21.75    5.64  -23.29    0.14   -1.55
 49  51   0.273  -41.43   -7.17   27.00    7.58  -29.33    0.41   -2.32
 51  52   0.091  -39.89   -2.29    8.73    2.31  -10.04    0.02   -1.31
 52  53   0.107  -53.48   -5.01    9.24    5.07  -12.86    0.06   -3.62
 53  54   0.145  -61.21   -8.47   11.26    8.54  -13.82    0.07   -2.56
 49  54   0.263  -51.77  -11.47   24.36   12.11  -29.05    0.65   -4.69
 49  54   0.257  -49.02  -10.06   24.33   10.80  -29.02    0.74   -4.69
 54  55   0.072  149.33    0.87   -6.83   -0.86    5.01    0.01   -1.82
 54  56   0.543  146.51    9.08  -51.08   -9.00   50.68    0.08   -0.39
 55  56   0.058  126.50    2.79   -4.84   -2.79    4.50    0.00   -0.34
 56  57   0.294  134.58   10.53  -26.22  -10.25   24.72    0.28   -1.50
 50  57   0.239  -45.73   -8.14   22.69    8.45  -25.12    0.31   -2.42
 56  58   0.252  132.28    9.91  -22.08   -9.71   20.38    0.20   -1.71
 51  58   0.211  -47.10   -7.79   19.39    7.91  -20.78    0.12   -1.39
 54  59   0.173 -164.78  -10.30  -12.88   10.41    7.78    0.12   -5.10
 56  59   0.141 -153.77  -10.35   -8.76   10.48    3.77    0.13   -4.99
 56  59   0.146 -152.57  -10.89   -8.83   11.03    4.17    0.14   -4.66
 55  59   0.168 -158.85  -11.33  -11.47   11.44    6.62    0.11   -4.85
 59  60   0.099  143.52    2.39   -9.44   -2.37    5.85    0.02   -3.59
 59  61   0.089  150.30    1.13   -8.69   -1.12    4.96    0.02   -3.73
 60  61   0.145  -90.89  -13.39    5.34   13.40   -6.75    0.01   -1.41
 60  62   0.123  138.07    4.06  -11.59   -4.04   10.20    0.02   -1.39
 61  62   0.219  127.73   10.83  -18.93  -10.79   18.13    0.04   -0.80
 63  59   1.058  -64.01  -66.62   78.69   66.62  -74.70   -0.00    3.99
 63  64   1.058  115.99   66.62  -78.69  -66.45   59.84    0.17  -18.84
 64  61   1.417 -102.71 -136.89   28.86  136.89  -23.64    0.00    5.22
 38  65   1.922   95.54  172.32  -75.78 -169.47    3.96    2.85  -71.83
 64  65   2.248   88.95  203.34  -88.71 -202.07   65.35    1.28  -23.35
 49  66   0.649 -129.43  -64.88  -14.82   65.63   16.00    0.75    1.17
 49  66   0.649 -129.43  -64.88  -14.82   65.63   16.00    0.75    1.17
 62  66   0.255  155.58    0.71  -25.48   -0.46   20.51    0.25   -4.97
 62  67   0.251  151.16    2.62  -24.95   -2.48   22.41    0.14   -2.54
 65  66   2.654 -100.20 -253.57   82.80  253.57  -60.01   -0.00   22.79
 66  67   0.202  -18.57    1.82   21.09   -1.72  -23.51    0.10   -2.42
 65  68  10.122   58.99 1016.11   48.40 -1001.91   52.62   14.20  101.02
 47  69   1.741   65.89  173.19  -22.17 -147.73   98.58   25.45   76.42
 49  69   1.752   65.95  179.39   -7.84 -149.21   98.34   30.18   90.50
 68  69  11.783   37.72 1129.92  295.98 -1129.92  153.09    0.00  449.07
 69  70   1.814 -121.65 -165.26   89.18  175.47  -58.49   10.21   30.70
 24  70   1.127   59.95  109.79   20.85 -109.51   22.31    0.29   43.17
 70  71   0.947 -116.05  -88.05   32.96   88.85  -30.63    0.79    2.33
 24  72   1.201   75.97  118.66  -10.94 -111.64   34.38    7.02   23.44
 71  72   1.028 -113.51  -94.85   36.54   99.64  -21.54    4.79   15.01
 71  73   0.085   89.97    6.01   -5.91   -6.00    4.79    0.01   -1.12
 70  74   0.085   79.88    6.80   -5.02   -6.78    1.77    0.02   -3.25
 70  75   0.072   84.91    5.39   -4.77   -5.37    1.27    0.02   -3.50
 69  75   1.767 -116.90 -153.21   99.87  166.37  -72.99   13.16   26.88
 74  75   0.034 -135.64   -3.42    0.09    3.43   -1.11    0.00   -1.02
 76  77   0.903 -121.66  -87.37   16.03   91.02   -7.51    3.65    8.52
 69  77   4.312 -117.09 -374.69  242.47  432.94  -62.91   58.24  179.56
 75  77   1.078 -117.96 -101.31   35.14  108.41  -16.52    7.10   18.62
 77  78   0.945 -130.63  -94.48  -10.84   94.82   10.66    0.34   -0.18
 78  79   1.054 -131.30 -105.52  -14.56  106.12   16.60    0.61    2.04
 77  80   2.279 -119.05 -228.37   20.11  237.22    0.18    8.85   20.30
 77  80   1.075 -122.74 -108.10    2.53  111.50    7.22    3.40    9.75
 79  80   1.097 -122.35 -111.92   -0.58  113.80    7.07    1.88    6.49
 68  81   3.154 -125.98 -312.55    8.89  314.33  -67.55    1.78  -58.66
 81  80   3.251 -111.74 -314.33   67.55  314.33  -33.37   -0.00   34.18
 77  82   2.353  -96.94 -210.62  107.99  227.38  -68.19   16.76   39.79
 82  83   1.851  -89.45 -170.55   70.14  174.42  -61.23    3.87    8.91
 83  84   0.796  -80.97  -70.50   35.51   74.53  -29.56    4.02    5.95
 83  85   1.132  -90.05 -106.91   34.04  112.47  -18.35    5.56   15.69
 84  85   0.818  -80.44  -76.13   28.46   78.16  -25.38    2.03    3.08
 85  86   0.069  179.67   -0.88   -6.89    0.89    4.15    0.01   -2.74
 86  87   0.069 -152.43   -3.99   -5.65    4.00    1.16    0.01   -4.49
...